Alim_Meia_Ponte_5_REDUZIDO/OBSOLETOS/5002086/Load.dss
New "Load.mt_10009727955_m1" bus1=88185385002086.1.2.3 phases=3 conn=delta model=2 kV=13.8 kW=8.2475315 pf=0.92 daily=MT-Tipo6_DU status=variable Vmaxpu=1.5 Vminpu=0.93
New "Load.mt_10009727955_m2" bus1=88185385002086.1.2.3 phases=3 conn=delta model=3 kV=13.8 kW=8.2475315 pf=0.92 daily=MT-Tipo6_DU status=variable Vmaxpu=1.5 Vminpu=0.93
New "Load.mt_10014416466_m1" bus1=89458365002086.1.2.3 phases=3 conn=delta model=2 kV=13.8 kW=3.997173 pf=0.92 daily=MT-Tipo6_DU status=variable Vmaxpu=1.5 Vminpu=0.93
New "Load.mt_10014416466_m2" bus1=89458365002086.1.2.3 phases=3 conn=delta model=3 kV=13.8 kW=3.997173 pf=0.92 daily=MT-Tipo6_DU status=variable Vmaxpu=1.5 Vminpu=0.93
New "Load.mt_10015559007_m1" bus1=89813615002086.1.2.3 phases=3 conn=delta model=2 kV=13.8 kW=3.4989245 pf=0.92 daily=MT-Tipo6_DU status=variable Vmaxpu=1.5 Vminpu=0.93
New "Load.mt_10015559007_m2" bus1=89813615002086.1.2.3 phases=3 conn=delta model=3 kV=13.8 kW=3.4989245 pf=0.92 daily=MT-Tipo6_DU status=variable Vmaxpu=1.5 Vminpu=0.93
New "Load.mt_10020770241_m1" bus1=90964325002086.1.2.3 phases=3 conn=delta model=2 kV=13.8 kW=1.484449 pf=0.92 daily=MT-Tipo6_DU status=variable Vmaxpu=1.5 Vminpu=0.93
New "Load.mt_10020770241_m2" bus1=90964325002086.1.2.3 phases=3 conn=delta model=3 kV=13.8 kW=1.484449 pf=0.92 daily=MT-Tipo6_DU status=variable Vmaxpu=1.5 Vminpu=0.93
New "Load.mt_10022767280_m1" bus1=89813615002086.1.2.3 phases=3 conn=delta model=2 kV=13.8 kW=1.5308315 pf=0.92 daily=MT-Tipo6_DU status=variable Vmaxpu=1.5 Vminpu=0.93
New "Load.mt_10022767280_m2" bus1=89813615002086.1.2.3 phases=3 conn=delta model=3 kV=13.8 kW=1.5308315 pf=0.92 daily=MT-Tipo6_DU status=variable Vmaxpu=1.5 Vminpu=0.93
New "Load.m2_trf_5286699a" bus1=82034475286699.1.2.3.4 phases=3 conn=wye model=3 kV=0.38 kW=0.374200556615708 kvar=0.161273509449 daily=RES-Tipo3_DU status=variable Vmaxpu=1.5 Vminpu=0.92
New "Load.m2_trf_5286707a" bus1=82034835286707.1.2.3.4 phases=3 conn=wye model=3 kV=0.38 kW=18.5093349166667 kvar=7.986403875 daily=RES-Tipo3_DU status=variable Vmaxpu=1.5 Vminpu=0.92
New "Load.m2_trf_5286708a" bus1=82034845286708.1.2.3.4 phases=3 conn=wye model=3 kV=0.38 kW=1.62631492988379 kvar=0.70914043261625 daily=RES-Tipo3_DU status=variable Vmaxpu=1.5 Vminpu=0.92
New "Load.m2_trf_5286718a" bus1=82053655286718.1.2.3.4 phases=3 conn=wye model=3 kV=0.38 kW=3.189403375 kvar=1.33159420833333 daily=RES-Tipo3_DU status=variable Vmaxpu=1.5 Vminpu=0.92
New "Load.m2_trf_5286787a" bus1=82023305286787.1.2.3.4 phases=3 conn=wye model=3 kV=0.38 kW=41.3651358885086 kvar=17.25991065551 daily=RES-Tipo3_DU status=variable Vmaxpu=1.5 Vminpu=0.92
New "Load.m2_trf_5286788a" bus1=82023395286788.1.2.3.4 phases=3 conn=wye model=3 kV=0.38 kW=68.1159946877792 kvar=27.8698873415833 daily=RES-Tipo3_DU status=variable Vmaxpu=1.5 Vminpu=0.92
New "Load.m2_trf_5286789a" bus1=82022295286789.1.2.3.4 phases=3 conn=wye model=3 kV=0.38 kW=27.1415865677167 kvar=11.2912259932625 daily=RES-Tipo3_DU status=variable Vmaxpu=1.5 Vminpu=0.92
New "Load.m2_trf_5286790a" bus1=82022455286790.1.2.3.4 phases=3 conn=wye model=3 kV=0.38 kW=43.1158471355125 kvar=18.0893991554625 daily=RES-Tipo3_DU status=variable Vmaxpu=1.5 Vminpu=0.92
New "Load.m2_trf_5286791a" bus1=82022605286791.1.2.3.4 phases=3 conn=wye model=3 kV=0.38 kW=49.8159739171958 kvar=20.7367526725417 daily=RES-Tipo3_DU status=variable Vmaxpu=1.5 Vminpu=0.92
New "Load.m2_trf_5286792a" bus1=82019965286792.1.2.3.4 phases=3 conn=wye model=3 kV=0.38 kW=41.1864708833467 kvar=17.0867409983433 daily=RES-Tipo3_DU status=variable Vmaxpu=1.5 Vminpu=0.92
New "Load.m2_trf_5286793a" bus1=82020055286793.1.2.3.4 phases=3 conn=wye model=3 kV=0.38 kW=25.0468378780512 kvar=10.4117878690583 daily=RES-Tipo3_DU status=variable Vmaxpu=1.5 Vminpu=0.92
New "Load.m2_trf_5286794a" bus1=82020175286794.1.2.3.4 phases=3 conn=wye model=3 kV=0.38 kW=60.9997658332943 kvar=25.3760260668054 daily=RES-Tipo3_DU status=variable Vmaxpu=1.5 Vminpu=0.92
New "Load.m2_trf_5286795a" bus1=82020405286795.1.2.3.4 phases=3 conn=wye model=3 kV=0.38 kW=43.7031935012461 kvar=18.2720443896583 daily=RES-Tipo3_DU status=variable Vmaxpu=1.5 Vminpu=0.92
New "Load.m2_trf_5286796a" bus1=82020555286796.1.2.3.4 phases=3 conn=wye model=3 kV=0.38 kW=33.6682834968817 kvar=14.0103496469792 daily=RES-Tipo3_DU status=variable Vmaxpu=1.5 Vminpu=0.92
New "Load.m2_trf_5286797a" bus1=82020675286797.1.2.3.4 phases=3 conn=wye model=3 kV=0.38 kW=21.5793686333008 kvar=9.01611358236667 daily=RES-Tipo3_DU status=variable Vmaxpu=1.5 Vminpu=0.92
New "Load.m2_trf_5286798a" bus1=82021885286798.1.2.3.4 phases=3 conn=wye model=3 kV=0.38 kW=25.2760595282292 kvar=10.5191485606679 daily=RES-Tipo3_DU status=variable Vmaxpu=1.5 Vminpu=0.92
New "Load.m2_trf_5286799a" bus1=82021995286799.1.2.3.4 phases=3 conn=wye model=3 kV=0.38 kW=51.5973020570333 kvar=21.3741075530583 daily=RES-Tipo3_DU status=variable Vmaxpu=1.5 Vminpu=0.92
New "Load.m2_trf_5286800a" bus1=82024325286800.1.2.3.4 phases=3 conn=wye model=3 kV=0.38 kW=44.2808897134792 kvar=18.4205104690833 daily=RES-Tipo3_DU status=variable Vmaxpu=1.5 Vminpu=0.92
New "Load.m2_trf_5286801a" bus1=82022225286801.1.2.3.4 phases=3 conn=wye model=3 kV=0.38 kW=31.3311562139896 kvar=13.0416126690413 daily=RES-Tipo3_DU status=variable Vmaxpu=1.5 Vminpu=0.92
New "Load.m2_trf_5286802a" bus1=82021615286802.1.2.3.4 phases=3 conn=wye model=3 kV=0.38 kW=26.7874639280175 kvar=11.102956855375 daily=RES-Tipo3_DU status=variable Vmaxpu=1.5 Vminpu=0.92
New "Load.m2_trf_5286803a" bus1=82036745286803.1.2.3.4 phases=3 conn=wye model=3 kV=0.38 kW=51.4004554409955 kvar=21.02986401845 daily=RES-Tipo3_DU status=variable Vmaxpu=1.5 Vminpu=0.92
New "Load.m2_trf_5286804a" bus1=82033055286804.1.2.3.4 phases=3 conn=wye model=3 kV=0.38 kW=47.284785191068 kvar=19.3308907164442 daily=RES-Tipo3_DU status=variable Vmaxpu=1.5 Vminpu=0.92
New "Load.m2_trf_5286805a" bus1=82033395286805.1.2.3.4 phases=3 conn=wye model=3 kV=0.38 kW=31.7726938617045 kvar=13.0908005939593 daily=RES-Tipo3_DU status=variable Vmaxpu=1.5 Vminpu=0.92
New "Load.m2_trf_5286806a" bus1=82024965286806.1.2.3.4 phases=3 conn=wye model=3 kV=0.38 kW=40.9340646324583 kvar=17.2071772577167 daily=RES-Tipo3_DU status=variable Vmaxpu=1.5 Vminpu=0.92
New "Load.m2_trf_5286807a" bus1=90855665286807.1.2.3.4 phases=3 conn=wye model=3 kV=0.38 kW=57.52509410465 kvar=23.8601330387125 daily=RES-Tipo3_DU status=variable Vmaxpu=1.5 Vminpu=0.92
New "Load.m2_trf_5286808a" bus1=82027905286808.1.2.3.4 phases=3 conn=wye model=3 kV=0.38 kW=58.1699964418417 kvar=23.739346588375 daily=RES-Tipo3_DU status=variable Vmaxpu=1.5 Vminpu=0.92
New "Load.m2_trf_5286809a" bus1=82028045286809.1.2.3.4 phases=3 conn=wye model=3 kV=0.38 kW=40.6384946212625 kvar=16.7903834498542 daily=RES-Tipo3_DU status=variable Vmaxpu=1.5 Vminpu=0.92
New "Load.m2_trf_5286810a" bus1=82028035286810.1.2.3.4 phases=3 conn=wye model=3 kV=0.38 kW=66.3622922596 kvar=27.8529749821875 daily=RES-Tipo3_DU status=variable Vmaxpu=1.5 Vminpu=0.92
New "Load.m2_trf_5286811a" bus1=82026685286811.1.2.3.4 phases=3 conn=wye model=3 kV=0.38 kW=50.1089382271913 kvar=20.8307771385567 daily=RES-Tipo3_DU status=variable Vmaxpu=1.5 Vminpu=0.92
New "Load.m2_trf_5286812a" bus1=82026915286812.1.2.3.4 phases=3 conn=wye model=3 kV=0.38 kW=86.6567068084291 kvar=36.1894146342542 daily=RES-Tipo3_DU status=variable Vmaxpu=1.5 Vminpu=0.92
New "Load.m2_trf_5286813a" bus1=82028365286813.1.2.3.4 phases=3 conn=wye model=3 kV=0.38 kW=23.2953923181083 kvar=9.650367696625 daily=RES-Tipo3_DU status=variable Vmaxpu=1.5 Vminpu=0.92
New "Load.m2_trf_5286814a" bus1=82027655286814.1.2.3.4 phases=3 conn=wye model=3 kV=0.38 kW=52.42178925625 kvar=21.7404244415942 daily=RES-Tipo3_DU status=variable Vmaxpu=1.5 Vminpu=0.92
New "Load.m2_trf_5286815a" bus1=82027735286815.1.2.3.4 phases=3 conn=wye model=3 kV=0.38 kW=59.6508818198542 kvar=24.8272409945833 daily=RES-Tipo3_DU status=variable Vmaxpu=1.5 Vminpu=0.92
New "Load.m2_trf_5286816a" bus1=82029355286816.1.2.3.4 phases=3 conn=wye model=3 kV=0.38 kW=48.8864023231039 kvar=20.4746818941736 daily=RES-Tipo3_DU status=variable Vmaxpu=1.5 Vminpu=0.92
New "Load.m2_trf_5286817a" bus1=82029275286817.1.2.3.4 phases=3 conn=wye model=3 kV=0.38 kW=30.8667610785341 kvar=12.7459275002396 daily=RES-Tipo3_DU status=variable Vmaxpu=1.5 Vminpu=0.92
New "Load.m2_trf_5286818a" bus1=82028855286818.1.2.3.4 phases=3 conn=wye model=3 kV=0.38 kW=19.6846547303838 kvar=8.10837410045125 daily=RES-Tipo3_DU status=variable Vmaxpu=1.5 Vminpu=0.92
New "Load.m2_trf_5286819a" bus1=82027135286819.1.2.3.4 phases=3 conn=wye model=3 kV=0.38 kW=52.5074079406158 kvar=21.8064475549083 daily=RES-Tipo3_DU status=variable Vmaxpu=1.5 Vminpu=0.92
New "Load.m2_trf_5286820a" bus1=82026625286820.1.2.3.4 phases=3 conn=wye model=3 kV=0.38 kW=35.2514706155986 kvar=14.5351696299538 daily=RES-Tipo3_DU status=variable Vmaxpu=1.5 Vminpu=0.92
New "Load.m2_trf_5286821a" bus1=82025745286821.1.2.3.4 phases=3 conn=wye model=3 kV=0.38 kW=70.3046080281479 kvar=29.4174349361125 daily=RES-Tipo3_DU status=variable Vmaxpu=1.5 Vminpu=0.92
New "Load.m2_trf_5286828a" bus1=82042655286828.1.2.3.4 phases=3 conn=wye model=3 kV=0.38 kW=38.2008681391375 kvar=16.346407392875 daily=RES-Tipo3_DU status=variable Vmaxpu=1.5 Vminpu=0.92
New "Load.m2_trf_5286829a" bus1=81490995286829.1.2.3.4 phases=3 conn=wye model=3 kV=0.38 kW=21.6523440417875 kvar=9.05922424642917 daily=RES-Tipo3_DU status=variable Vmaxpu=1.5 Vminpu=0.92
New "Load.m2_trf_5286830a" bus1=81460505286830.1.2.3.4 phases=3 conn=wye model=3 kV=0.38 kW=45.7574030970625 kvar=19.4444249344958 daily=RES-Tipo3_DU status=variable Vmaxpu=1.5 Vminpu=0.92
New "Load.m2_trf_5286831a" bus1=82043025286831.1.2.3.4 phases=3 conn=wye model=3 kV=0.38 kW=38.011979618825 kvar=15.8821310732 daily=RES-Tipo3_DU status=variable Vmaxpu=1.5 Vminpu=0.92
New "Load.m2_trf_5286832a" bus1=82042575286832.1.2.3.4 phases=3 conn=wye model=3 kV=0.38 kW=31.412378334402 kvar=13.0092378461208 daily=RES-Tipo3_DU status=variable Vmaxpu=1.5 Vminpu=0.92
New "Load.m2_trf_5286833a" bus1=82041995286833.1.2.3.4 phases=3 conn=wye model=3 kV=0.38 kW=41.6000826428369 kvar=17.1799551133917 daily=RES-Tipo3_DU status=variable Vmaxpu=1.5 Vminpu=0.92
New "Load.m2_trf_5286834a" bus1=82038095286834.1.2.3.4 phases=3 conn=wye model=3 kV=0.38 kW=51.8307114515708 kvar=21.6780833640708 daily=RES-Tipo3_DU status=variable Vmaxpu=1.5 Vminpu=0.92
New "Load.m2_trf_5286835a" bus1=82038115286835.1.2.3.4 phases=3 conn=wye model=3 kV=0.38 kW=43.3083214021296 kvar=17.9884059722792 daily=RES-Tipo3_DU status=variable Vmaxpu=1.5 Vminpu=0.92
New "Load.m2_trf_5286836a" bus1=82041105286836.1.2.3.4 phases=3 conn=wye model=3 kV=0.38 kW=27.6713207147776 kvar=11.4449688397408 daily=RES-Tipo3_DU status=variable Vmaxpu=1.5 Vminpu=0.92
New "Load.m2_trf_5286837a" bus1=82041215286837.1.2.3.4 phases=3 conn=wye model=3 kV=0.38 kW=15.2457568477633 kvar=6.37067854572042 daily=RES-Tipo3_DU status=variable Vmaxpu=1.5 Vminpu=0.92
New "Load.m2_trf_5286838a" bus1=82041905286838.1.2.3.4 phases=3 conn=wye model=3 kV=0.38 kW=29.1704890193683 kvar=12.0954382402583 daily=RES-Tipo3_DU status=variable Vmaxpu=1.5 Vminpu=0.92
New "Load.m2_trf_5286839a" bus1=82038825286839.1.2.3.4 phases=3 conn=wye model=3 kV=0.38 kW=42.1869897857278 kvar=17.5891836709375 daily=RES-Tipo3_DU status=variable Vmaxpu=1.5 Vminpu=0.92
New "Load.m2_trf_5286840a" bus1=82037555286840.1.2.3.4 phases=3 conn=wye model=3 kV=0.38 kW=60.1382700490901 kvar=25.2087921767875 daily=RES-Tipo3_DU status=variable Vmaxpu=1.5 Vminpu=0.92
New "Load.m2_trf_5286841a" bus1=82039455286841.1.2.3.4 phases=3 conn=wye model=3 kV=0.38 kW=36.2465058621959 kvar=15.020687574675 daily=RES-Tipo3_DU status=variable Vmaxpu=1.5 Vminpu=0.92
New "Load.m2_trf_5286842a" bus1=82039695286842.1.2.3.4 phases=3 conn=wye model=3 kV=0.38 kW=39.0668881876921 kvar=16.1621455676813 daily=RES-Tipo3_DU status=variable Vmaxpu=1.5 Vminpu=0.92
New "Load.m2_trf_5286843a" bus1=82042105286843.1.2.3.4 phases=3 conn=wye model=3 kV=0.38 kW=29.793197545325 kvar=12.3878322759583 daily=RES-Tipo3_DU status=variable Vmaxpu=1.5 Vminpu=0.92
New "Load.m2_trf_5286844a" bus1=82042165286844.1.2.3.4 phases=3 conn=wye model=3 kV=0.38 kW=27.509580589791 kvar=11.4312338949958 daily=RES-Tipo3_DU status=variable Vmaxpu=1.5 Vminpu=0.92
New "Load.m2_trf_5286845a" bus1=82042275286845.1.2.3.4 phases=3 conn=wye model=3 kV=0.38 kW=37.8662399597113 kvar=15.6560780782292 daily=RES-Tipo3_DU status=variable Vmaxpu=1.5 Vminpu=0.92
New "Load.m2_trf_5286846a" bus1=82041545286846.1.2.3.4 phases=3 conn=wye model=3 kV=0.38 kW=29.5085194176417 kvar=12.1879215634667 daily=RES-Tipo3_DU status=variable Vmaxpu=1.5 Vminpu=0.92
New "Load.m2_trf_5286857a" bus1=82062475286857.1.2.3.4 phases=3 conn=wye model=3 kV=0.38 kW=51.8861347948358 kvar=21.4655338197775 daily=RES-Tipo3_DU status=variable Vmaxpu=1.5 Vminpu=0.92
New "Load.m2_trf_5286858a" bus1=82064145286858.1.2.3.4 phases=3 conn=wye model=3 kV=0.38 kW=36.7309185489779 kvar=15.2310006097583 daily=RES-Tipo3_DU status=variable Vmaxpu=1.5 Vminpu=0.92
New "Load.m2_trf_5286860a" bus1=82065235286860.1.2.3.4 phases=3 conn=wye model=3 kV=0.38 kW=24.6664161965329 kvar=10.2459495962708 daily=RES-Tipo3_DU status=variable Vmaxpu=1.5 Vminpu=0.92
New "Load.m2_trf_5286861a" bus1=82064065286861.1.2.3.4 phases=3 conn=wye model=3 kV=0.38 kW=29.0506311830086 kvar=12.0309354587754 daily=RES-Tipo3_DU status=variable Vmaxpu=1.5 Vminpu=0.92
New "Load.m2_trf_5286862a" bus1=82065285286862.1.2.3.4 phases=3 conn=wye model=3 kV=0.38 kW=41.5871800342117 kvar=17.1551642432146 daily=RES-Tipo3_DU status=variable Vmaxpu=1.5 Vminpu=0.92
New "Load.m2_trf_5286863a" bus1=82064825286863.1.2.3.4 phases=3 conn=wye model=3 kV=0.38 kW=32.8181395151612 kvar=13.6346598317875 daily=RES-Tipo3_DU status=variable Vmaxpu=1.5 Vminpu=0.92
New "Load.m2_trf_5286864a" bus1=82064425286864.1.2.3.4 phases=3 conn=wye model=3 kV=0.38 kW=33.3333876476403 kvar=13.8348956277583 daily=RES-Tipo3_DU status=variable Vmaxpu=1.5 Vminpu=0.92
New "Load.m2_trf_5286865a" bus1=82065005286865.1.2.3.4 phases=3 conn=wye model=3 kV=0.38 kW=32.6883319573367 kvar=13.5290123861712 daily=RES-Tipo3_DU status=variable Vmaxpu=1.5 Vminpu=0.92
New "Load.m2_trf_5286866a" bus1=82063385286866.1.2.3.4 phases=3 conn=wye model=3 kV=0.38 kW=41.8899956757229 kvar=17.3360817196375 daily=RES-Tipo3_DU status=variable Vmaxpu=1.5 Vminpu=0.92
New "Load.m2_trf_5286867a" bus1=82044385286867.1.2.3.4 phases=3 conn=wye model=3 kV=0.38 kW=39.496736716 kvar=16.2191931168542 daily=RES-Tipo3_DU status=variable Vmaxpu=1.5 Vminpu=0.92
New "Load.m2_trf_5286871a" bus1=82055725286871.1.2.3.4 phases=3 conn=wye model=3 kV=0.38 kW=28.1404774555219 kvar=11.6174877423404 daily=RES-Tipo3_DU status=variable Vmaxpu=1.5 Vminpu=0.92
New "Load.m2_trf_5286872a" bus1=82054825286872.1.2.3.4 phases=3 conn=wye model=3 kV=0.38 kW=26.5792532367375 kvar=10.8143224965296 daily=RES-Tipo3_DU status=variable Vmaxpu=1.5 Vminpu=0.92
New "Load.m2_trf_5286890a" bus1=82056915286890.1.2.3.4 phases=3 conn=wye model=3 kV=0.38 kW=37.1114260200233 kvar=15.4020236253042 daily=RES-Tipo3_DU status=variable Vmaxpu=1.5 Vminpu=0.92
New "Load.m2_trf_5286891a" bus1=82056385286891.1.2.3.4 phases=3 conn=wye model=3 kV=0.38 kW=36.8617265023358 kvar=15.3396133966358 daily=RES-Tipo3_DU status=variable Vmaxpu=1.5 Vminpu=0.92
New "Load.m2_trf_5286914a" bus1=82053635286914.1.2.3.4 phases=3 conn=wye model=3 kV=0.38 kW=41.0707129794929 kvar=16.9903151068417 daily=RES-Tipo3_DU status=variable Vmaxpu=1.5 Vminpu=0.92
New "Load.m2_trf_5286915a" bus1=82054535286915.1.2.3.4 phases=3 conn=wye model=3 kV=0.38 kW=34.153544604335 kvar=14.0501576693822 daily=RES-Tipo3_DU status=variable Vmaxpu=1.5 Vminpu=0.92
New "Load.m2_trf_5286916a" bus1=82054235286916.1.2.3.4 phases=3 conn=wye model=3 kV=0.38 kW=44.2257063478146 kvar=18.20173410155 daily=RES-Tipo3_DU status=variable Vmaxpu=1.5 Vminpu=0.92
New "Load.m2_trf_5286917a" bus1=82054305286917.1.2.3.4 phases=3 conn=wye model=3 kV=0.38 kW=65.7945815361842 kvar=27.2354314940108 daily=RES-Tipo3_DU status=variable Vmaxpu=1.5 Vminpu=0.92
New "Load.m2_trf_5286918a" bus1=82053975286918.1.2.3.4 phases=3 conn=wye model=3 kV=0.38 kW=56.2820235261417 kvar=23.3376698174167 daily=RES-Tipo3_DU status=variable Vmaxpu=1.5 Vminpu=0.92
New "Load.m2_trf_5286919a" bus1=82060535286919.1.2.3.4 phases=3 conn=wye model=3 kV=0.38 kW=30.1492211275479 kvar=12.4973452278687 daily=RES-Tipo3_DU status=variable Vmaxpu=1.5 Vminpu=0.92
New "Load.m2_trf_5286930a" bus1=82049375286930.1.2.3.4 phases=3 conn=wye model=3 kV=0.38 kW=33.5952664536967 kvar=13.8912815746925 daily=RES-Tipo3_DU status=variable Vmaxpu=1.5 Vminpu=0.92
New "Load.m2_trf_5286931a" bus1=82049545286931.1.2.3.4 phases=3 conn=wye model=3 kV=0.38 kW=66.4166485994167 kvar=27.2019028819583 daily=RES-Tipo3_DU status=variable Vmaxpu=1.5 Vminpu=0.92
New "Load.m2_trf_5286932a" bus1=82049765286932.1.2.3.4 phases=3 conn=wye model=3 kV=0.38 kW=19.7539987051825 kvar=8.24905410838246 daily=RES-Tipo3_DU status=variable Vmaxpu=1.5 Vminpu=0.92
New "Load.m2_trf_5286933a" bus1=82049805286933.1.2.3.4 phases=3 conn=wye model=3 kV=0.38 kW=44.7402348473629 kvar=18.5224997566062 daily=RES-Tipo3_DU status=variable Vmaxpu=1.5 Vminpu=0.92
New "Load.m2_trf_5286934a" bus1=82049885286934.1.2.3.4 phases=3 conn=wye model=3 kV=0.38 kW=70.0051678216042 kvar=29.2937338589042 daily=RES-Tipo3_DU status=variable Vmaxpu=1.5 Vminpu=0.92
New "Load.m2_trf_5286935a" bus1=82050325286935.1.2.3.4 phases=3 conn=wye model=3 kV=0.38 kW=13.6389649604565 kvar=5.62774306009767 daily=RES-Tipo3_DU status=variable Vmaxpu=1.5 Vminpu=0.92
New "Load.m2_trf_5286936a" bus1=82049975286936.1.2.3.4 phases=3 conn=wye model=3 kV=0.38 kW=31.4373700316002 kvar=12.8404419444997 daily=RES-Tipo3_DU status=variable Vmaxpu=1.5 Vminpu=0.92
New "Load.m2_trf_5286937a" bus1=82050035286937.1.2.3.4 phases=3 conn=wye model=3 kV=0.38 kW=11.4126069530117 kvar=4.7065318784475 daily=RES-Tipo3_DU status=variable Vmaxpu=1.5 Vminpu=0.92
New "Load.m2_trf_5286938a" bus1=82050465286938.1.2.3.4 phases=3 conn=wye model=3 kV=0.38 kW=40.6288203160244 kvar=16.8571216175062 daily=RES-Tipo3_DU status=variable Vmaxpu=1.5 Vminpu=0.92
New "Load.m2_trf_5286939a" bus1=82039815286939.1.2.3.4 phases=3 conn=wye model=3 kV=0.38 kW=23.0808786222414 kvar=9.52588626355939 daily=RES-Tipo3_DU status=variable Vmaxpu=1.5 Vminpu=0.92
New "Load.m2_trf_5286940a" bus1=82039945286940.1.2.3.4 phases=3 conn=wye model=3 kV=0.38 kW=29.2777031362117 kvar=12.0216019982142 daily=RES-Tipo3_DU status=variable Vmaxpu=1.5 Vminpu=0.92
New "Load.m2_trf_5286941a" bus1=82040015286941.1.2.3.4 phases=3 conn=wye model=3 kV=0.38 kW=36.7223763197542 kvar=15.1113592817583 daily=RES-Tipo3_DU status=variable Vmaxpu=1.5 Vminpu=0.92
New "Load.m2_trf_5286942a" bus1=82040165286942.1.2.3.4 phases=3 conn=wye model=3 kV=0.38 kW=15.9747605108355 kvar=6.60049811483042 daily=RES-Tipo3_DU status=variable Vmaxpu=1.5 Vminpu=0.92
New "Load.m2_trf_5286943a" bus1=82040265286943.1.2.3.4 phases=3 conn=wye model=3 kV=0.38 kW=13.7845268266233 kvar=5.67436699759125 daily=RES-Tipo3_DU status=variable Vmaxpu=1.5 Vminpu=0.92
New "Load.m2_trf_5286944a" bus1=82039725286944.1.2.3.4 phases=3 conn=wye model=3 kV=0.38 kW=18.6364838972257 kvar=7.69731063602333 daily=RES-Tipo3_DU status=variable Vmaxpu=1.5 Vminpu=0.92
New "Load.m2_trf_5286945a" bus1=82040415286945.1.2.3.4 phases=3 conn=wye model=3 kV=0.38 kW=37.5724644910276 kvar=15.5116993840533 daily=RES-Tipo3_DU status=variable Vmaxpu=1.5 Vminpu=0.92
New "Load.m2_trf_5286946a" bus1=82040575286946.1.2.3.4 phases=3 conn=wye model=3 kV=0.38 kW=20.1303149159827 kvar=8.29100750807766 daily=RES-Tipo3_DU status=variable Vmaxpu=1.5 Vminpu=0.92
New "Load.m2_trf_5440862a" bus1=81479715440862.1.2.3.4 phases=3 conn=wye model=3 kV=0.38 kW=34.7678068577997 kvar=14.3527329580625 daily=RES-Tipo3_DU status=variable Vmaxpu=1.5 Vminpu=0.92
New "Load.m2_trf_5469845a" bus1=82032105469845.1.2.3.4 phases=3 conn=wye model=3 kV=0.38 kW=19.5447430818667 kvar=8.01060695329583 daily=RES-Tipo3_DU status=variable Vmaxpu=1.5 Vminpu=0.92
New "Load.m2_trf_5470133a" bus1=82034125470133.1.2.3.4 phases=3 conn=wye model=3 kV=0.38 kW=16.023370890992 kvar=6.57602515685792 daily=RES-Tipo3_DU status=variable Vmaxpu=1.5 Vminpu=0.92
New "Load.m2_trf_5472282a" bus1=87774405472282.1.2.3.4 phases=3 conn=wye model=3 kV=0.38 kW=11.3764679113995 kvar=4.79922992828637 daily=RES-Tipo3_DU status=variable Vmaxpu=1.5 Vminpu=0.92
New "Load.m2_trf_5479360a" bus1=81460535479360.1.2.3.4 phases=3 conn=wye model=3 kV=0.38 kW=12.1415509178337 kvar=5.039333801875 daily=RES-Tipo3_DU status=variable Vmaxpu=1.5 Vminpu=0.92
New "Load.m2_trf_5491509a" bus1=88287355491509.1.2.3.4 phases=3 conn=wye model=3 kV=0.38 kW=12.3448138130837 kvar=5.11382177672358 daily=RES-Tipo3_DU status=variable Vmaxpu=1.5 Vminpu=0.92
New "Load.m2_trf_5499009a" bus1=82062715499009.1.2.3.4 phases=3 conn=wye model=3 kV=0.38 kW=31.9026114292343 kvar=13.1368014043168 daily=RES-Tipo3_DU status=variable Vmaxpu=1.5 Vminpu=0.92
New "Load.m2_trf_5485359a" bus1=88109845485359.1.2.3.4 phases=3 conn=wye model=3 kV=0.38 kW=12.0954311980942 kvar=5.01623569342983 daily=RES-Tipo3_DU status=variable Vmaxpu=1.5 Vminpu=0.92
New "Load.m2_trf_5502834a" bus1=82026575502834.1.2.3.4 phases=3 conn=wye model=3 kV=0.38 kW=36.6767229394426 kvar=15.0680967433606 daily=RES-Tipo3_DU status=variable Vmaxpu=1.5 Vminpu=0.92
New "Load.m2_trf_5505307a" bus1=82034555505307.1.2.3.4 phases=3 conn=wye model=3 kV=0.38 kW=49.0572674396833 kvar=20.1161504495931 daily=RES-Tipo3_DU status=variable Vmaxpu=1.5 Vminpu=0.92
New "Load.m2_trf_5535535a" bus1=89701935535535.1.2.3.4 phases=3 conn=wye model=3 kV=0.38 kW=25.2173042819917 kvar=10.473078224125 daily=RES-Tipo3_DU status=variable Vmaxpu=1.5 Vminpu=0.92
New "Load.m2_trf_5537656a" bus1=89813615537656.1.2.3.4 phases=3 conn=wye model=3 kV=0.38 kW=15.5931074963628 kvar=6.43400600867326 daily=RES-Tipo3_DU status=variable Vmaxpu=1.5 Vminpu=0.92
New "Load.m2_trf_5547722a" bus1=90017985547722.1.2.3.4 phases=3 conn=wye model=3 kV=0.38 kW=16.717409246175 kvar=7.14483523841667 daily=RES-Tipo3_DU status=variable Vmaxpu=1.5 Vminpu=0.92
New "Load.m2_trf_5551754a" bus1=82061675551754.1.2.3.4 phases=3 conn=wye model=3 kV=0.38 kW=22.5440294750083 kvar=9.3170847695625 daily=RES-Tipo3_DU status=variable Vmaxpu=1.5 Vminpu=0.92
New "Load.m2_trf_5552038a" bus1=90190165552038.1.2.3.4 phases=3 conn=wye model=3 kV=0.38 kW=33.4365529606561 kvar=14.0592137364 daily=RES-Tipo3_DU status=variable Vmaxpu=1.5 Vminpu=0.92
New "Load.m2_trf_5552309a" bus1=82024125552309.1.2.3.4 phases=3 conn=wye model=3 kV=0.38 kW=26.2976981957904 kvar=10.9321618026958 daily=RES-Tipo3_DU status=variable Vmaxpu=1.5 Vminpu=0.92
New "Load.m2_trf_5552553a" bus1=90214315552553.1.2.3.4 phases=3 conn=wye model=3 kV=0.38 kW=7.886733333339 kvar=3.280452515 daily=RES-Tipo3_DU status=variable Vmaxpu=1.5 Vminpu=0.92
New "Load.m2_trf_5552819a" bus1=82032765552819.1.2.3.4 phases=3 conn=wye model=3 kV=0.38 kW=72.3030995454521 kvar=29.5000715203229 daily=RES-Tipo3_DU status=variable Vmaxpu=1.5 Vminpu=0.92
New "Load.m2_trf_5569878a" bus1=82055955569878.1.2.3.4 phases=3 conn=wye model=3 kV=0.38 kW=34.2882913093792 kvar=14.0470829121783 daily=RES-Tipo3_DU status=variable Vmaxpu=1.5 Vminpu=0.92
New "Load.m2_trf_5555964a" bus1=90305705555964.1.2.3.4 phases=3 conn=wye model=3 kV=0.38 kW=11.8064737342362 kvar=5.08144793223613 daily=RES-Tipo3_DU status=variable Vmaxpu=1.5 Vminpu=0.92
New "Load.m2_trf_5557353a" bus1=82044325557353.1.2.3.4 phases=3 conn=wye model=3 kV=0.38 kW=37.4056871973758 kvar=15.5249922484796 daily=RES-Tipo3_DU status=variable Vmaxpu=1.5 Vminpu=0.92
New "Load.m2_trf_5558213a" bus1=90349975558213.1.2.3.4 phases=3 conn=wye model=3 kV=0.38 kW=25.374130241237 kvar=10.5026230740888 daily=RES-Tipo3_DU status=variable Vmaxpu=1.5 Vminpu=0.92
New "Load.m2_trf_5560489a" bus1=90409505560489.1.2.3.4 phases=3 conn=wye model=3 kV=0.38 kW=28.996570039575 kvar=12.0328687484292 daily=RES-Tipo3_DU status=variable Vmaxpu=1.5 Vminpu=0.92
New "Load.m2_trf_5574596a" bus1=82031945574596.1.2.3.4 phases=3 conn=wye model=3 kV=0.38 kW=30.6266191966888 kvar=12.6173747230125 daily=RES-Tipo3_DU status=variable Vmaxpu=1.5 Vminpu=0.92
New "Load.m2_trf_5577671a" bus1=90938795577671.1.2.3.4 phases=3 conn=wye model=3 kV=0.38 kW=25.0863953354675 kvar=10.33781491075 daily=RES-Tipo3_DU status=variable Vmaxpu=1.5 Vminpu=0.92
New "Load.m2_trf_5286947a" bus1=82040855286947.1.2.3.4 phases=3 conn=wye model=3 kV=0.38 kW=15.6226730068757 kvar=6.44104636196975 daily=RES-Tipo3_DU status=variable Vmaxpu=1.5 Vminpu=0.92
New "Load.m2_trf_5286958a" bus1=82031405286958.1.2.3.4 phases=3 conn=wye model=3 kV=0.38 kW=46.19648570499 kvar=19.0854248388863 daily=RES-Tipo3_DU status=variable Vmaxpu=1.5 Vminpu=0.92
New "Load.m2_trf_5286959a" bus1=82031445286959.1.2.3.4 phases=3 conn=wye model=3 kV=0.38 kW=57.8306072328 kvar=24.2325684528875 daily=RES-Tipo3_DU status=variable Vmaxpu=1.5 Vminpu=0.92
New "Load.m2_trf_5286960a" bus1=82033945286960.1.2.3.4 phases=3 conn=wye model=3 kV=0.38 kW=41.6169203741962 kvar=16.8967112938 daily=RES-Tipo3_DU status=variable Vmaxpu=1.5 Vminpu=0.92
New "Load.m2_trf_5286961a" bus1=97400945286961.1.2.3.4 phases=3 conn=wye model=3 kV=0.38 kW=60.6389158510554 kvar=25.091107829475 daily=RES-Tipo3_DU status=variable Vmaxpu=1.5 Vminpu=0.92
New "Load.m2_trf_5286962a" bus1=82034445286962.1.2.3.4 phases=3 conn=wye model=3 kV=0.38 kW=20.7539588334792 kvar=8.5904202759625 daily=RES-Tipo3_DU status=variable Vmaxpu=1.5 Vminpu=0.92
New "Load.m2_trf_5286963a" bus1=82035255286963.1.2.3.4 phases=3 conn=wye model=3 kV=0.38 kW=27.4878154324004 kvar=11.3167785071226 daily=RES-Tipo3_DU status=variable Vmaxpu=1.5 Vminpu=0.92
New "Load.m2_trf_5286964a" bus1=82036275286964.1.2.3.4 phases=3 conn=wye model=3 kV=0.38 kW=96.2449756584217 kvar=40.6803272913083 daily=RES-Tipo3_DU status=variable Vmaxpu=1.5 Vminpu=0.92
New "Load.m2_trf_5286965a" bus1=82035485286965.1.2.3.4 phases=3 conn=wye model=3 kV=0.38 kW=48.5652508059852 kvar=20.2287372543704 daily=RES-Tipo3_DU status=variable Vmaxpu=1.5 Vminpu=0.92
New "Load.m2_trf_5286966a" bus1=82036045286966.1.2.3.4 phases=3 conn=wye model=3 kV=0.38 kW=43.04832154385 kvar=17.9567968829458 daily=RES-Tipo3_DU status=variable Vmaxpu=1.5 Vminpu=0.92
New "Load.m2_trf_5286967a" bus1=82029725286967.1.2.3.4 phases=3 conn=wye model=3 kV=0.38 kW=15.4493790493505 kvar=6.35924460176167 daily=RES-Tipo3_DU status=variable Vmaxpu=1.5 Vminpu=0.92
New "Load.m2_trf_5647498a" bus1=93119985647498.1.2.3.4 phases=3 conn=wye model=3 kV=0.38 kW=1.1863905 kvar=0.4957855 daily=RES-Tipo3_DU status=variable Vmaxpu=1.5 Vminpu=0.92
New "Load.m2_trf_5688575a" bus1=82054155688575.1.2.3.4 phases=3 conn=wye model=3 kV=0.38 kW=22.5784941664971 kvar=9.12623409618333 daily=RES-Tipo3_DU status=variable Vmaxpu=1.5 Vminpu=0.92
New "Load.m2_trf_5675373a" bus1=93945325675373.1.2.3.4 phases=3 conn=wye model=3 kV=0.38 kW=16.4432664865641 kvar=6.85884080732358 daily=RES-Tipo3_DU status=variable Vmaxpu=1.5 Vminpu=0.92
New "Load.m2_trf_5323939a" bus1=84503635323939.1.2.3.4 phases=3 conn=wye model=3 kV=0.38 kW=18.4257362500001 kvar=7.64305020833333 daily=RES-Tipo3_DU status=variable Vmaxpu=1.5 Vminpu=0.92
New "Load.m2_trf_5702287a" bus1=90017935702287.1.2.3.4 phases=3 conn=wye model=3 kV=0.38 kW=0.323585894381613 kvar=0.139179402843442 daily=RES-Tipo3_DU status=variable Vmaxpu=1.5 Vminpu=0.92
New "Load.m2_trf_5713817a" bus1=82034385713817.1.2.3.4 phases=3 conn=wye model=3 kV=0.38 kW=9.40554475682242 kvar=3.99488637989871 daily=RES-Tipo3_DU status=variable Vmaxpu=1.5 Vminpu=0.92
New "Load.m2_trf_5719448a" bus1=95141555719448.1.2.3.4 phases=3 conn=wye model=3 kV=0.38 kW=10.9369024708601 kvar=4.64015047943489 daily=RES-Tipo3_DU status=variable Vmaxpu=1.5 Vminpu=0.92
New "Load.m2_trf_5333902a" bus1=85167275333902.1.2.3.4 phases=3 conn=wye model=3 kV=0.38 kW=36.5048226119063 kvar=15.1097237180458 daily=RES-Tipo3_DU status=variable Vmaxpu=1.5 Vminpu=0.92
New "Load.m2_trf_5740255a" bus1=82056945740255.1.2.3.4 phases=3 conn=wye model=3 kV=0.38 kW=20.3095572644625 kvar=8.27421460195833 daily=RES-Tipo3_DU status=variable Vmaxpu=1.5 Vminpu=0.92
New "Load.m2_trf_5740270a" bus1=96033635740270.1.2.3.4 phases=3 conn=wye model=3 kV=0.38 kW=17.0439719051225 kvar=6.96010352856458 daily=RES-Tipo3_DU status=variable Vmaxpu=1.5 Vminpu=0.92
New "Load.m2_trf_5744153a" bus1=96264655744153.1.2.3.4 phases=3 conn=wye model=3 kV=0.38 kW=22.872803125251 kvar=9.48946342758508 daily=RES-Tipo3_DU status=variable Vmaxpu=1.5 Vminpu=0.92
New "Load.m2_trf_5444435a" bus1=81481405444435.1.2.3.4 phases=3 conn=wye model=3 kV=0.38 kW=15.4372598587625 kvar=6.30626742059167 daily=RES-Tipo3_DU status=variable Vmaxpu=1.5 Vminpu=0.92
New "Load.m1_trf_5286699a" bus1=82034475286699.1.2.3.4 phases=3 conn=wye model=2 kV=0.38 kW=0.374200556615708 kvar=0.161273509449 daily=RES-Tipo3_DU status=variable Vmaxpu=1.5 Vminpu=0.92
New "Load.m1_trf_5286707a" bus1=82034835286707.1.2.3.4 phases=3 conn=wye model=2 kV=0.38 kW=18.5093349166667 kvar=7.986403875 daily=RES-Tipo3_DU status=variable Vmaxpu=1.5 Vminpu=0.92
New "Load.m1_trf_5286708a" bus1=82034845286708.1.2.3.4 phases=3 conn=wye model=2 kV=0.38 kW=1.62631492988379 kvar=0.70914043261625 daily=RES-Tipo3_DU status=variable Vmaxpu=1.5 Vminpu=0.92
New "Load.m1_trf_5286718a" bus1=82053655286718.1.2.3.4 phases=3 conn=wye model=2 kV=0.38 kW=3.189403375 kvar=1.33159420833333 daily=RES-Tipo3_DU status=variable Vmaxpu=1.5 Vminpu=0.92
New "Load.m1_trf_5286787a" bus1=82023305286787.1.2.3.4 phases=3 conn=wye model=2 kV=0.38 kW=41.3651358885086 kvar=17.25991065551 daily=RES-Tipo3_DU status=variable Vmaxpu=1.5 Vminpu=0.92
New "Load.m1_trf_5286788a" bus1=82023395286788.1.2.3.4 phases=3 conn=wye model=2 kV=0.38 kW=68.1159946877792 kvar=27.8698873415833 daily=RES-Tipo3_DU status=variable Vmaxpu=1.5 Vminpu=0.92
New "Load.m1_trf_5286789a" bus1=82022295286789.1.2.3.4 phases=3 conn=wye model=2 kV=0.38 kW=27.1415865677167 kvar=11.2912259932625 daily=RES-Tipo3_DU status=variable Vmaxpu=1.5 Vminpu=0.92
New "Load.m1_trf_5286790a" bus1=82022455286790.1.2.3.4 phases=3 conn=wye model=2 kV=0.38 kW=43.1158471355125 kvar=18.0893991554625 daily=RES-Tipo3_DU status=variable Vmaxpu=1.5 Vminpu=0.92
New "Load.m1_trf_5286791a" bus1=82022605286791.1.2.3.4 phases=3 conn=wye model=2 kV=0.38 kW=49.8159739171958 kvar=20.7367526725417 daily=RES-Tipo3_DU status=variable Vmaxpu=1.5 Vminpu=0.92
New "Load.m1_trf_5286792a" bus1=82019965286792.1.2.3.4 phases=3 conn=wye model=2 kV=0.38 kW=41.1864708833467 kvar=17.0867409983433 daily=RES-Tipo3_DU status=variable Vmaxpu=1.5 Vminpu=0.92
New "Load.m1_trf_5286793a" bus1=82020055286793.1.2.3.4 phases=3 conn=wye model=2 kV=0.38 kW=25.0468378780512 kvar=10.4117878690583 daily=RES-Tipo3_DU status=variable Vmaxpu=1.5 Vminpu=0.92
New "Load.m1_trf_5286794a" bus1=82020175286794.1.2.3.4 phases=3 conn=wye model=2 kV=0.38 kW=60.9997658332943 kvar=25.3760260668054 daily=RES-Tipo3_DU status=variable Vmaxpu=1.5 Vminpu=0.92
New "Load.m1_trf_5286795a" bus1=82020405286795.1.2.3.4 phases=3 conn=wye model=2 kV=0.38 kW=43.7031935012461 kvar=18.2720443896583 daily=RES-Tipo3_DU status=variable Vmaxpu=1.5 Vminpu=0.92
New "Load.m1_trf_5286796a" bus1=82020555286796.1.2.3.4 phases=3 conn=wye model=2 kV=0.38 kW=33.6682834968817 kvar=14.0103496469792 daily=RES-Tipo3_DU status=variable Vmaxpu=1.5 Vminpu=0.92
New "Load.m1_trf_5286797a" bus1=82020675286797.1.2.3.4 phases=3 conn=wye model=2 kV=0.38 kW=21.5793686333008 kvar=9.01611358236667 daily=RES-Tipo3_DU status=variable Vmaxpu=1.5 Vminpu=0.92
New "Load.m1_trf_5286798a" bus1=82021885286798.1.2.3.4 phases=3 conn=wye model=2 kV=0.38 kW=25.2760595282292 kvar=10.5191485606679 daily=RES-Tipo3_DU status=variable Vmaxpu=1.5 Vminpu=0.92
New "Load.m1_trf_5286799a" bus1=82021995286799.1.2.3.4 phases=3 conn=wye model=2 kV=0.38 kW=51.5973020570333 kvar=21.3741075530583 daily=RES-Tipo3_DU status=variable Vmaxpu=1.5 Vminpu=0.92
New "Load.m1_trf_5286800a" bus1=82024325286800.1.2.3.4 phases=3 conn=wye model=2 kV=0.38 kW=44.2808897134792 kvar=18.4205104690833 daily=RES-Tipo3_DU status=variable Vmaxpu=1.5 Vminpu=0.92
New "Load.m1_trf_5286801a" bus1=82022225286801.1.2.3.4 phases=3 conn=wye model=2 kV=0.38 kW=31.3311562139896 kvar=13.0416126690413 daily=RES-Tipo3_DU status=variable Vmaxpu=1.5 Vminpu=0.92
New "Load.m1_trf_5286802a" bus1=82021615286802.1.2.3.4 phases=3 conn=wye model=2 kV=0.38 kW=26.7874639280175 kvar=11.102956855375 daily=RES-Tipo3_DU status=variable Vmaxpu=1.5 Vminpu=0.92
New "Load.m1_trf_5286803a" bus1=82036745286803.1.2.3.4 phases=3 conn=wye model=2 kV=0.38 kW=51.4004554409955 kvar=21.02986401845 daily=RES-Tipo3_DU status=variable Vmaxpu=1.5 Vminpu=0.92
New "Load.m1_trf_5286804a" bus1=82033055286804.1.2.3.4 phases=3 conn=wye model=2 kV=0.38 kW=47.284785191068 kvar=19.3308907164442 daily=RES-Tipo3_DU status=variable Vmaxpu=1.5 Vminpu=0.92
New "Load.m1_trf_5286805a" bus1=82033395286805.1.2.3.4 phases=3 conn=wye model=2 kV=0.38 kW=31.7726938617045 kvar=13.0908005939593 daily=RES-Tipo3_DU status=variable Vmaxpu=1.5 Vminpu=0.92
New "Load.m1_trf_5286806a" bus1=82024965286806.1.2.3.4 phases=3 conn=wye model=2 kV=0.38 kW=40.9340646324583 kvar=17.2071772577167 daily=RES-Tipo3_DU status=variable Vmaxpu=1.5 Vminpu=0.92
New "Load.m1_trf_5286807a" bus1=90855665286807.1.2.3.4 phases=3 conn=wye model=2 kV=0.38 kW=57.52509410465 kvar=23.8601330387125 daily=RES-Tipo3_DU status=variable Vmaxpu=1.5 Vminpu=0.92
New "Load.m1_trf_5286808a" bus1=82027905286808.1.2.3.4 phases=3 conn=wye model=2 kV=0.38 kW=58.1699964418417 kvar=23.739346588375 daily=RES-Tipo3_DU status=variable Vmaxpu=1.5 Vminpu=0.92
New "Load.m1_trf_5286809a" bus1=82028045286809.1.2.3.4 phases=3 conn=wye model=2 kV=0.38 kW=40.6384946212625 kvar=16.7903834498542 daily=RES-Tipo3_DU status=variable Vmaxpu=1.5 Vminpu=0.92
New "Load.m1_trf_5286810a" bus1=82028035286810.1.2.3.4 phases=3 conn=wye model=2 kV=0.38 kW=66.3622922596 kvar=27.8529749821875 daily=RES-Tipo3_DU status=variable Vmaxpu=1.5 Vminpu=0.92
New "Load.m1_trf_5286811a" bus1=82026685286811.1.2.3.4 phases=3 conn=wye model=2 kV=0.38 kW=50.1089382271913 kvar=20.8307771385567 daily=RES-Tipo3_DU status=variable Vmaxpu=1.5 Vminpu=0.92
New "Load.m1_trf_5286812a" bus1=82026915286812.1.2.3.4 phases=3 conn=wye model=2 kV=0.38 kW=86.6567068084291 kvar=36.1894146342542 daily=RES-Tipo3_DU status=variable Vmaxpu=1.5 Vminpu=0.92
New "Load.m1_trf_5286813a" bus1=82028365286813.1.2.3.4 phases=3 conn=wye model=2 kV=0.38 kW=23.2953923181083 kvar=9.650367696625 daily=RES-Tipo3_DU status=variable Vmaxpu=1.5 Vminpu=0.92
New "Load.m1_trf_5286814a" bus1=82027655286814.1.2.3.4 phases=3 conn=wye model=2 kV=0.38 kW=52.42178925625 kvar=21.7404244415942 daily=RES-Tipo3_DU status=variable Vmaxpu=1.5 Vminpu=0.92
New "Load.m1_trf_5286815a" bus1=82027735286815.1.2.3.4 phases=3 conn=wye model=2 kV=0.38 kW=59.6508818198542 kvar=24.8272409945833 daily=RES-Tipo3_DU status=variable Vmaxpu=1.5 Vminpu=0.92
New "Load.m1_trf_5286816a" bus1=82029355286816.1.2.3.4 phases=3 conn=wye model=2 kV=0.38 kW=48.8864023231039 kvar=20.4746818941736 daily=RES-Tipo3_DU status=variable Vmaxpu=1.5 Vminpu=0.92
New "Load.m1_trf_5286817a" bus1=82029275286817.1.2.3.4 phases=3 conn=wye model=2 kV=0.38 kW=30.8667610785341 kvar=12.7459275002396 daily=RES-Tipo3_DU status=variable Vmaxpu=1.5 Vminpu=0.92
New "Load.m1_trf_5286818a" bus1=82028855286818.1.2.3.4 phases=3 conn=wye model=2 kV=0.38 kW=19.6846547303838 kvar=8.10837410045125 daily=RES-Tipo3_DU status=variable Vmaxpu=1.5 Vminpu=0.92
New "Load.m1_trf_5286819a" bus1=82027135286819.1.2.3.4 phases=3 conn=wye model=2 kV=0.38 kW=52.5074079406158 kvar=21.8064475549083 daily=RES-Tipo3_DU status=variable Vmaxpu=1.5 Vminpu=0.92
New "Load.m1_trf_5286820a" bus1=82026625286820.1.2.3.4 phases=3 conn=wye model=2 kV=0.38 kW=35.2514706155986 kvar=14.5351696299538 daily=RES-Tipo3_DU status=variable Vmaxpu=1.5 Vminpu=0.92
New "Load.m1_trf_5286821a" bus1=82025745286821.1.2.3.4 phases=3 conn=wye model=2 kV=0.38 kW=70.3046080281479 kvar=29.4174349361125 daily=RES-Tipo3_DU status=variable Vmaxpu=1.5 Vminpu=0.92
New "Load.m1_trf_5286828a" bus1=82042655286828.1.2.3.4 phases=3 conn=wye model=2 kV=0.38 kW=38.2008681391375 kvar=16.346407392875 daily=RES-Tipo3_DU status=variable Vmaxpu=1.5 Vminpu=0.92
New "Load.m1_trf_5286829a" bus1=81490995286829.1.2.3.4 phases=3 conn=wye model=2 kV=0.38 kW=21.6523440417875 kvar=9.05922424642917 daily=RES-Tipo3_DU status=variable Vmaxpu=1.5 Vminpu=0.92
New "Load.m1_trf_5286830a" bus1=81460505286830.1.2.3.4 phases=3 conn=wye model=2 kV=0.38 kW=45.7574030970625 kvar=19.4444249344958 daily=RES-Tipo3_DU status=variable Vmaxpu=1.5 Vminpu=0.92
New "Load.m1_trf_5286831a" bus1=82043025286831.1.2.3.4 phases=3 conn=wye model=2 kV=0.38 kW=38.011979618825 kvar=15.8821310732 daily=RES-Tipo3_DU status=variable Vmaxpu=1.5 Vminpu=0.92
New "Load.m1_trf_5286832a" bus1=82042575286832.1.2.3.4 phases=3 conn=wye model=2 kV=0.38 kW=31.412378334402 kvar=13.0092378461208 daily=RES-Tipo3_DU status=variable Vmaxpu=1.5 Vminpu=0.92
New "Load.m1_trf_5286833a" bus1=82041995286833.1.2.3.4 phases=3 conn=wye model=2 kV=0.38 kW=41.6000826428369 kvar=17.1799551133917 daily=RES-Tipo3_DU status=variable Vmaxpu=1.5 Vminpu=0.92
New "Load.m1_trf_5286834a" bus1=82038095286834.1.2.3.4 phases=3 conn=wye model=2 kV=0.38 kW=51.8307114515708 kvar=21.6780833640708 daily=RES-Tipo3_DU status=variable Vmaxpu=1.5 Vminpu=0.92
New "Load.m1_trf_5286835a" bus1=82038115286835.1.2.3.4 phases=3 conn=wye model=2 kV=0.38 kW=43.3083214021296 kvar=17.9884059722792 daily=RES-Tipo3_DU status=variable Vmaxpu=1.5 Vminpu=0.92
New "Load.m1_trf_5286836a" bus1=82041105286836.1.2.3.4 phases=3 conn=wye model=2 kV=0.38 kW=27.6713207147776 kvar=11.4449688397408 daily=RES-Tipo3_DU status=variable Vmaxpu=1.5 Vminpu=0.92
New "Load.m1_trf_5286837a" bus1=82041215286837.1.2.3.4 phases=3 conn=wye model=2 kV=0.38 kW=15.2457568477633 kvar=6.37067854572042 daily=RES-Tipo3_DU status=variable Vmaxpu=1.5 Vminpu=0.92
New "Load.m1_trf_5286838a" bus1=82041905286838.1.2.3.4 phases=3 conn=wye model=2 kV=0.38 kW=29.1704890193683 kvar=12.0954382402583 daily=RES-Tipo3_DU status=variable Vmaxpu=1.5 Vminpu=0.92
New "Load.m1_trf_5286839a" bus1=82038825286839.1.2.3.4 phases=3 conn=wye model=2 kV=0.38 kW=42.1869897857278 kvar=17.5891836709375 daily=RES-Tipo3_DU status=variable Vmaxpu=1.5 Vminpu=0.92
New "Load.m1_trf_5286840a" bus1=82037555286840.1.2.3.4 phases=3 conn=wye model=2 kV=0.38 kW=60.1382700490901 kvar=25.2087921767875 daily=RES-Tipo3_DU status=variable Vmaxpu=1.5 Vminpu=0.92
New "Load.m1_trf_5286841a" bus1=82039455286841.1.2.3.4 phases=3 conn=wye model=2 kV=0.38 kW=36.2465058621959 kvar=15.020687574675 daily=RES-Tipo3_DU status=variable Vmaxpu=1.5 Vminpu=0.92
New "Load.m1_trf_5286842a" bus1=82039695286842.1.2.3.4 phases=3 conn=wye model=2 kV=0.38 kW=39.0668881876921 kvar=16.1621455676813 daily=RES-Tipo3_DU status=variable Vmaxpu=1.5 Vminpu=0.92
New "Load.m1_trf_5286843a" bus1=82042105286843.1.2.3.4 phases=3 conn=wye model=2 kV=0.38 kW=29.793197545325 kvar=12.3878322759583 daily=RES-Tipo3_DU status=variable Vmaxpu=1.5 Vminpu=0.92
New "Load.m1_trf_5286844a" bus1=82042165286844.1.2.3.4 phases=3 conn=wye model=2 kV=0.38 kW=27.509580589791 kvar=11.4312338949958 daily=RES-Tipo3_DU status=variable Vmaxpu=1.5 Vminpu=0.92
New "Load.m1_trf_5286845a" bus1=82042275286845.1.2.3.4 phases=3 conn=wye model=2 kV=0.38 kW=37.8662399597113 kvar=15.6560780782292 daily=RES-Tipo3_DU status=variable Vmaxpu=1.5 Vminpu=0.92
New "Load.m1_trf_5286846a" bus1=82041545286846.1.2.3.4 phases=3 conn=wye model=2 kV=0.38 kW=29.5085194176417 kvar=12.1879215634667 daily=RES-Tipo3_DU status=variable Vmaxpu=1.5 Vminpu=0.92
New "Load.m1_trf_5286857a" bus1=82062475286857.1.2.3.4 phases=3 conn=wye model=2 kV=0.38 kW=51.8861347948358 kvar=21.4655338197775 daily=RES-Tipo3_DU status=variable Vmaxpu=1.5 Vminpu=0.92
New "Load.m1_trf_5286858a" bus1=82064145286858.1.2.3.4 phases=3 conn=wye model=2 kV=0.38 kW=36.7309185489779 kvar=15.2310006097583 daily=RES-Tipo3_DU status=variable Vmaxpu=1.5 Vminpu=0.92
New "Load.m1_trf_5286860a" bus1=82065235286860.1.2.3.4 phases=3 conn=wye model=2 kV=0.38 kW=24.6664161965329 kvar=10.2459495962708 daily=RES-Tipo3_DU status=variable Vmaxpu=1.5 Vminpu=0.92
New "Load.m1_trf_5286861a" bus1=82064065286861.1.2.3.4 phases=3 conn=wye model=2 kV=0.38 kW=29.0506311830086 kvar=12.0309354587754 daily=RES-Tipo3_DU status=variable Vmaxpu=1.5 Vminpu=0.92
New "Load.m1_trf_5286862a" bus1=82065285286862.1.2.3.4 phases=3 conn=wye model=2 kV=0.38 kW=41.5871800342117 kvar=17.1551642432146 daily=RES-Tipo3_DU status=variable Vmaxpu=1.5 Vminpu=0.92
New "Load.m1_trf_5286863a" bus1=82064825286863.1.2.3.4 phases=3 conn=wye model=2 kV=0.38 kW=32.8181395151612 kvar=13.6346598317875 daily=RES-Tipo3_DU status=variable Vmaxpu=1.5 Vminpu=0.92
New "Load.m1_trf_5286864a" bus1=82064425286864.1.2.3.4 phases=3 conn=wye model=2 kV=0.38 kW=33.3333876476403 kvar=13.8348956277583 daily=RES-Tipo3_DU status=variable Vmaxpu=1.5 Vminpu=0.92
New "Load.m1_trf_5286865a" bus1=82065005286865.1.2.3.4 phases=3 conn=wye model=2 kV=0.38 kW=32.6883319573367 kvar=13.5290123861712 daily=RES-Tipo3_DU status=variable Vmaxpu=1.5 Vminpu=0.92
New "Load.m1_trf_5286866a" bus1=82063385286866.1.2.3.4 phases=3 conn=wye model=2 kV=0.38 kW=41.8899956757229 kvar=17.3360817196375 daily=RES-Tipo3_DU status=variable Vmaxpu=1.5 Vminpu=0.92
New "Load.m1_trf_5286867a" bus1=82044385286867.1.2.3.4 phases=3 conn=wye model=2 kV=0.38 kW=39.496736716 kvar=16.2191931168542 daily=RES-Tipo3_DU status=variable Vmaxpu=1.5 Vminpu=0.92
New "Load.m1_trf_5286871a" bus1=82055725286871.1.2.3.4 phases=3 conn=wye model=2 kV=0.38 kW=28.1404774555219 kvar=11.6174877423404 daily=RES-Tipo3_DU status=variable Vmaxpu=1.5 Vminpu=0.92
New "Load.m1_trf_5286872a" bus1=82054825286872.1.2.3.4 phases=3 conn=wye model=2 kV=0.38 kW=26.5792532367375 kvar=10.8143224965296 daily=RES-Tipo3_DU status=variable Vmaxpu=1.5 Vminpu=0.92
New "Load.m1_trf_5286890a" bus1=82056915286890.1.2.3.4 phases=3 conn=wye model=2 kV=0.38 kW=37.1114260200233 kvar=15.4020236253042 daily=RES-Tipo3_DU status=variable Vmaxpu=1.5 Vminpu=0.92
New "Load.m1_trf_5286891a" bus1=82056385286891.1.2.3.4 phases=3 conn=wye model=2 kV=0.38 kW=36.8617265023358 kvar=15.3396133966358 daily=RES-Tipo3_DU status=variable Vmaxpu=1.5 Vminpu=0.92
New "Load.m1_trf_5286914a" bus1=82053635286914.1.2.3.4 phases=3 conn=wye model=2 kV=0.38 kW=41.0707129794929 kvar=16.9903151068417 daily=RES-Tipo3_DU status=variable Vmaxpu=1.5 Vminpu=0.92
New "Load.m1_trf_5286915a" bus1=82054535286915.1.2.3.4 phases=3 conn=wye model=2 kV=0.38 kW=34.153544604335 kvar=14.0501576693822 daily=RES-Tipo3_DU status=variable Vmaxpu=1.5 Vminpu=0.92
New "Load.m1_trf_5286916a" bus1=82054235286916.1.2.3.4 phases=3 conn=wye model=2 kV=0.38 kW=44.2257063478146 kvar=18.20173410155 daily=RES-Tipo3_DU status=variable Vmaxpu=1.5 Vminpu=0.92
New "Load.m1_trf_5286917a" bus1=82054305286917.1.2.3.4 phases=3 conn=wye model=2 kV=0.38 kW=65.7945815361842 kvar=27.2354314940108 daily=RES-Tipo3_DU status=variable Vmaxpu=1.5 Vminpu=0.92
New "Load.m1_trf_5286918a" bus1=82053975286918.1.2.3.4 phases=3 conn=wye model=2 kV=0.38 kW=56.2820235261417 kvar=23.3376698174167 daily=RES-Tipo3_DU status=variable Vmaxpu=1.5 Vminpu=0.92
New "Load.m1_trf_5286919a" bus1=82060535286919.1.2.3.4 phases=3 conn=wye model=2 kV=0.38 kW=30.1492211275479 kvar=12.4973452278687 daily=RES-Tipo3_DU status=variable Vmaxpu=1.5 Vminpu=0.92
New "Load.m1_trf_5286930a" bus1=82049375286930.1.2.3.4 phases=3 conn=wye model=2 kV=0.38 kW=33.5952664536967 kvar=13.8912815746925 daily=RES-Tipo3_DU status=variable Vmaxpu=1.5 Vminpu=0.92
New "Load.m1_trf_5286931a" bus1=82049545286931.1.2.3.4 phases=3 conn=wye model=2 kV=0.38 kW=66.4166485994167 kvar=27.2019028819583 daily=RES-Tipo3_DU status=variable Vmaxpu=1.5 Vminpu=0.92
New "Load.m1_trf_5286932a" bus1=82049765286932.1.2.3.4 phases=3 conn=wye model=2 kV=0.38 kW=19.7539987051825 kvar=8.24905410838246 daily=RES-Tipo3_DU status=variable Vmaxpu=1.5 Vminpu=0.92
New "Load.m1_trf_5286933a" bus1=82049805286933.1.2.3.4 phases=3 conn=wye model=2 kV=0.38 kW=44.7402348473629 kvar=18.5224997566062 daily=RES-Tipo3_DU status=variable Vmaxpu=1.5 Vminpu=0.92
New "Load.m1_trf_5286934a" bus1=82049885286934.1.2.3.4 phases=3 conn=wye model=2 kV=0.38 kW=70.0051678216042 kvar=29.2937338589042 daily=RES-Tipo3_DU status=variable Vmaxpu=1.5 Vminpu=0.92
New "Load.m1_trf_5286935a" bus1=82050325286935.1.2.3.4 phases=3 conn=wye model=2 kV=0.38 kW=13.6389649604565 kvar=5.62774306009767 daily=RES-Tipo3_DU status=variable Vmaxpu=1.5 Vminpu=0.92
New "Load.m1_trf_5286936a" bus1=82049975286936.1.2.3.4 phases=3 conn=wye model=2 kV=0.38 kW=31.4373700316002 kvar=12.8404419444997 daily=RES-Tipo3_DU status=variable Vmaxpu=1.5 Vminpu=0.92
New "Load.m1_trf_5286937a" bus1=82050035286937.1.2.3.4 phases=3 conn=wye model=2 kV=0.38 kW=11.4126069530117 kvar=4.7065318784475 daily=RES-Tipo3_DU status=variable Vmaxpu=1.5 Vminpu=0.92
New "Load.m1_trf_5286938a" bus1=82050465286938.1.2.3.4 phases=3 conn=wye model=2 kV=0.38 kW=40.6288203160244 kvar=16.8571216175062 daily=RES-Tipo3_DU status=variable Vmaxpu=1.5 Vminpu=0.92
New "Load.m1_trf_5286939a" bus1=82039815286939.1.2.3.4 phases=3 conn=wye model=2 kV=0.38 kW=23.0808786222414 kvar=9.52588626355939 daily=RES-Tipo3_DU status=variable Vmaxpu=1.5 Vminpu=0.92
New "Load.m1_trf_5286940a" bus1=82039945286940.1.2.3.4 phases=3 conn=wye model=2 kV=0.38 kW=29.2777031362117 kvar=12.0216019982142 daily=RES-Tipo3_DU status=variable Vmaxpu=1.5 Vminpu=0.92
New "Load.m1_trf_5286941a" bus1=82040015286941.1.2.3.4 phases=3 conn=wye model=2 kV=0.38 kW=36.7223763197542 kvar=15.1113592817583 daily=RES-Tipo3_DU status=variable Vmaxpu=1.5 Vminpu=0.92
New "Load.m1_trf_5286942a" bus1=82040165286942.1.2.3.4 phases=3 conn=wye model=2 kV=0.38 kW=15.9747605108355 kvar=6.60049811483042 daily=RES-Tipo3_DU status=variable Vmaxpu=1.5 Vminpu=0.92
New "Load.m1_trf_5286943a" bus1=82040265286943.1.2.3.4 phases=3 conn=wye model=2 kV=0.38 kW=13.7845268266233 kvar=5.67436699759125 daily=RES-Tipo3_DU status=variable Vmaxpu=1.5 Vminpu=0.92
New "Load.m1_trf_5286944a" bus1=82039725286944.1.2.3.4 phases=3 conn=wye model=2 kV=0.38 kW=18.6364838972257 kvar=7.69731063602333 daily=RES-Tipo3_DU status=variable Vmaxpu=1.5 Vminpu=0.92
New "Load.m1_trf_5286945a" bus1=82040415286945.1.2.3.4 phases=3 conn=wye model=2 kV=0.38 kW=37.5724644910276 kvar=15.5116993840533 daily=RES-Tipo3_DU status=variable Vmaxpu=1.5 Vminpu=0.92
New "Load.m1_trf_5286946a" bus1=82040575286946.1.2.3.4 phases=3 conn=wye model=2 kV=0.38 kW=20.1303149159827 kvar=8.29100750807766 daily=RES-Tipo3_DU status=variable Vmaxpu=1.5 Vminpu=0.92
New "Load.m1_trf_5440862a" bus1=81479715440862.1.2.3.4 phases=3 conn=wye model=2 kV=0.38 kW=34.7678068577997 kvar=14.3527329580625 daily=RES-Tipo3_DU status=variable Vmaxpu=1.5 Vminpu=0.92
New "Load.m1_trf_5469845a" bus1=82032105469845.1.2.3.4 phases=3 conn=wye model=2 kV=0.38 kW=19.5447430818667 kvar=8.01060695329583 daily=RES-Tipo3_DU status=variable Vmaxpu=1.5 Vminpu=0.92
New "Load.m1_trf_5470133a" bus1=82034125470133.1.2.3.4 phases=3 conn=wye model=2 kV=0.38 kW=16.023370890992 kvar=6.57602515685792 daily=RES-Tipo3_DU status=variable Vmaxpu=1.5 Vminpu=0.92
New "Load.m1_trf_5472282a" bus1=87774405472282.1.2.3.4 phases=3 conn=wye model=2 kV=0.38 kW=11.3764679113995 kvar=4.79922992828637 daily=RES-Tipo3_DU status=variable Vmaxpu=1.5 Vminpu=0.92
New "Load.m1_trf_5479360a" bus1=81460535479360.1.2.3.4 phases=3 conn=wye model=2 kV=0.38 kW=12.1415509178337 kvar=5.039333801875 daily=RES-Tipo3_DU status=variable Vmaxpu=1.5 Vminpu=0.92
New "Load.m1_trf_5491509a" bus1=88287355491509.1.2.3.4 phases=3 conn=wye model=2 kV=0.38 kW=12.3448138130837 kvar=5.11382177672358 daily=RES-Tipo3_DU status=variable Vmaxpu=1.5 Vminpu=0.92
New "Load.m1_trf_5499009a" bus1=82062715499009.1.2.3.4 phases=3 conn=wye model=2 kV=0.38 kW=31.9026114292343 kvar=13.1368014043168 daily=RES-Tipo3_DU status=variable Vmaxpu=1.5 Vminpu=0.92
New "Load.m1_trf_5485359a" bus1=88109845485359.1.2.3.4 phases=3 conn=wye model=2 kV=0.38 kW=12.0954311980942 kvar=5.01623569342983 daily=RES-Tipo3_DU status=variable Vmaxpu=1.5 Vminpu=0.92
New "Load.m1_trf_5502834a" bus1=82026575502834.1.2.3.4 phases=3 conn=wye model=2 kV=0.38 kW=36.6767229394426 kvar=15.0680967433606 daily=RES-Tipo3_DU status=variable Vmaxpu=1.5 Vminpu=0.92
New "Load.m1_trf_5505307a" bus1=82034555505307.1.2.3.4 phases=3 conn=wye model=2 kV=0.38 kW=49.0572674396833 kvar=20.1161504495931 daily=RES-Tipo3_DU status=variable Vmaxpu=1.5 Vminpu=0.92
New "Load.m1_trf_5535535a" bus1=89701935535535.1.2.3.4 phases=3 conn=wye model=2 kV=0.38 kW=25.2173042819917 kvar=10.473078224125 daily=RES-Tipo3_DU status=variable Vmaxpu=1.5 Vminpu=0.92
New "Load.m1_trf_5537656a" bus1=89813615537656.1.2.3.4 phases=3 conn=wye model=2 kV=0.38 kW=15.5931074963628 kvar=6.43400600867326 daily=RES-Tipo3_DU status=variable Vmaxpu=1.5 Vminpu=0.92
New "Load.m1_trf_5547722a" bus1=90017985547722.1.2.3.4 phases=3 conn=wye model=2 kV=0.38 kW=16.717409246175 kvar=7.14483523841667 daily=RES-Tipo3_DU status=variable Vmaxpu=1.5 Vminpu=0.92
New "Load.m1_trf_5551754a" bus1=82061675551754.1.2.3.4 phases=3 conn=wye model=2 kV=0.38 kW=22.5440294750083 kvar=9.3170847695625 daily=RES-Tipo3_DU status=variable Vmaxpu=1.5 Vminpu=0.92
New "Load.m1_trf_5552038a" bus1=90190165552038.1.2.3.4 phases=3 conn=wye model=2 kV=0.38 kW=33.4365529606561 kvar=14.0592137364 daily=RES-Tipo3_DU status=variable Vmaxpu=1.5 Vminpu=0.92
New "Load.m1_trf_5552309a" bus1=82024125552309.1.2.3.4 phases=3 conn=wye model=2 kV=0.38 kW=26.2976981957904 kvar=10.9321618026958 daily=RES-Tipo3_DU status=variable Vmaxpu=1.5 Vminpu=0.92
New "Load.m1_trf_5552553a" bus1=90214315552553.1.2.3.4 phases=3 conn=wye model=2 kV=0.38 kW=7.886733333339 kvar=3.280452515 daily=RES-Tipo3_DU status=variable Vmaxpu=1.5 Vminpu=0.92
New "Load.m1_trf_5552819a" bus1=82032765552819.1.2.3.4 phases=3 conn=wye model=2 kV=0.38 kW=72.3030995454521 kvar=29.5000715203229 daily=RES-Tipo3_DU status=variable Vmaxpu=1.5 Vminpu=0.92
New "Load.m1_trf_5569878a" bus1=82055955569878.1.2.3.4 phases=3 conn=wye model=2 kV=0.38 kW=34.2882913093792 kvar=14.0470829121783 daily=RES-Tipo3_DU status=variable Vmaxpu=1.5 Vminpu=0.92
New "Load.m1_trf_5555964a" bus1=90305705555964.1.2.3.4 phases=3 conn=wye model=2 kV=0.38 kW=11.8064737342362 kvar=5.08144793223613 daily=RES-Tipo3_DU status=variable Vmaxpu=1.5 Vminpu=0.92
New "Load.m1_trf_5557353a" bus1=82044325557353.1.2.3.4 phases=3 conn=wye model=2 kV=0.38 kW=37.4056871973758 kvar=15.5249922484796 daily=RES-Tipo3_DU status=variable Vmaxpu=1.5 Vminpu=0.92
New "Load.m1_trf_5558213a" bus1=90349975558213.1.2.3.4 phases=3 conn=wye model=2 kV=0.38 kW=25.374130241237 kvar=10.5026230740888 daily=RES-Tipo3_DU status=variable Vmaxpu=1.5 Vminpu=0.92
New "Load.m1_trf_5560489a" bus1=90409505560489.1.2.3.4 phases=3 conn=wye model=2 kV=0.38 kW=28.996570039575 kvar=12.0328687484292 daily=RES-Tipo3_DU status=variable Vmaxpu=1.5 Vminpu=0.92
New "Load.m1_trf_5574596a" bus1=82031945574596.1.2.3.4 phases=3 conn=wye model=2 kV=0.38 kW=30.6266191966888 kvar=12.6173747230125 daily=RES-Tipo3_DU status=variable Vmaxpu=1.5 Vminpu=0.92
New "Load.m1_trf_5577671a" bus1=90938795577671.1.2.3.4 phases=3 conn=wye model=2 kV=0.38 kW=25.0863953354675 kvar=10.33781491075 daily=RES-Tipo3_DU status=variable Vmaxpu=1.5 Vminpu=0.92
New "Load.m1_trf_5286947a" bus1=82040855286947.1.2.3.4 phases=3 conn=wye model=2 kV=0.38 kW=15.6226730068757 kvar=6.44104636196975 daily=RES-Tipo3_DU status=variable Vmaxpu=1.5 Vminpu=0.92
New "Load.m1_trf_5286958a" bus1=82031405286958.1.2.3.4 phases=3 conn=wye model=2 kV=0.38 kW=46.19648570499 kvar=19.0854248388863 daily=RES-Tipo3_DU status=variable Vmaxpu=1.5 Vminpu=0.92
New "Load.m1_trf_5286959a" bus1=82031445286959.1.2.3.4 phases=3 conn=wye model=2 kV=0.38 kW=57.8306072328 kvar=24.2325684528875 daily=RES-Tipo3_DU status=variable Vmaxpu=1.5 Vminpu=0.92
New "Load.m1_trf_5286960a" bus1=82033945286960.1.2.3.4 phases=3 conn=wye model=2 kV=0.38 kW=41.6169203741962 kvar=16.8967112938 daily=RES-Tipo3_DU status=variable Vmaxpu=1.5 Vminpu=0.92
New "Load.m1_trf_5286961a" bus1=97400945286961.1.2.3.4 phases=3 conn=wye model=2 kV=0.38 kW=60.6389158510554 kvar=25.091107829475 daily=RES-Tipo3_DU status=variable Vmaxpu=1.5 Vminpu=0.92
New "Load.m1_trf_5286962a" bus1=82034445286962.1.2.3.4 phases=3 conn=wye model=2 kV=0.38 kW=20.7539588334792 kvar=8.5904202759625 daily=RES-Tipo3_DU status=variable Vmaxpu=1.5 Vminpu=0.92
New "Load.m1_trf_5286963a" bus1=82035255286963.1.2.3.4 phases=3 conn=wye model=2 kV=0.38 kW=27.4878154324004 kvar=11.3167785071226 daily=RES-Tipo3_DU status=variable Vmaxpu=1.5 Vminpu=0.92
New "Load.m1_trf_5286964a" bus1=82036275286964.1.2.3.4 phases=3 conn=wye model=2 kV=0.38 kW=96.2449756584217 kvar=40.6803272913083 daily=RES-Tipo3_DU status=variable Vmaxpu=1.5 Vminpu=0.92
New "Load.m1_trf_5286965a" bus1=82035485286965.1.2.3.4 phases=3 conn=wye model=2 kV=0.38 kW=48.5652508059852 kvar=20.2287372543704 daily=RES-Tipo3_DU status=variable Vmaxpu=1.5 Vminpu=0.92
New "Load.m1_trf_5286966a" bus1=82036045286966.1.2.3.4 phases=3 conn=wye model=2 kV=0.38 kW=43.04832154385 kvar=17.9567968829458 daily=RES-Tipo3_DU status=variable Vmaxpu=1.5 Vminpu=0.92
New "Load.m1_trf_5286967a" bus1=82029725286967.1.2.3.4 phases=3 conn=wye model=2 kV=0.38 kW=15.4493790493505 kvar=6.35924460176167 daily=RES-Tipo3_DU status=variable Vmaxpu=1.5 Vminpu=0.92
New "Load.m1_trf_5647498a" bus1=93119985647498.1.2.3.4 phases=3 conn=wye model=2 kV=0.38 kW=1.1863905 kvar=0.4957855 daily=RES-Tipo3_DU status=variable Vmaxpu=1.5 Vminpu=0.92
New "Load.m1_trf_5688575a" bus1=82054155688575.1.2.3.4 phases=3 conn=wye model=2 kV=0.38 kW=22.5784941664971 kvar=9.12623409618333 daily=RES-Tipo3_DU status=variable Vmaxpu=1.5 Vminpu=0.92
New "Load.m1_trf_5675373a" bus1=93945325675373.1.2.3.4 phases=3 conn=wye model=2 kV=0.38 kW=16.4432664865641 kvar=6.85884080732358 daily=RES-Tipo3_DU status=variable Vmaxpu=1.5 Vminpu=0.92
New "Load.m1_trf_5323939a" bus1=84503635323939.1.2.3.4 phases=3 conn=wye model=2 kV=0.38 kW=18.4257362500001 kvar=7.64305020833333 daily=RES-Tipo3_DU status=variable Vmaxpu=1.5 Vminpu=0.92
New "Load.m1_trf_5702287a" bus1=90017935702287.1.2.3.4 phases=3 conn=wye model=2 kV=0.38 kW=0.323585894381613 kvar=0.139179402843442 daily=RES-Tipo3_DU status=variable Vmaxpu=1.5 Vminpu=0.92
New "Load.m1_trf_5713817a" bus1=82034385713817.1.2.3.4 phases=3 conn=wye model=2 kV=0.38 kW=9.40554475682242 kvar=3.99488637989871 daily=RES-Tipo3_DU status=variable Vmaxpu=1.5 Vminpu=0.92
New "Load.m1_trf_5719448a" bus1=95141555719448.1.2.3.4 phases=3 conn=wye model=2 kV=0.38 kW=10.9369024708601 kvar=4.64015047943489 daily=RES-Tipo3_DU status=variable Vmaxpu=1.5 Vminpu=0.92
New "Load.m1_trf_5333902a" bus1=85167275333902.1.2.3.4 phases=3 conn=wye model=2 kV=0.38 kW=36.5048226119063 kvar=15.1097237180458 daily=RES-Tipo3_DU status=variable Vmaxpu=1.5 Vminpu=0.92
New "Load.m1_trf_5740255a" bus1=82056945740255.1.2.3.4 phases=3 conn=wye model=2 kV=0.38 kW=20.3095572644625 kvar=8.27421460195833 daily=RES-Tipo3_DU status=variable Vmaxpu=1.5 Vminpu=0.92
New "Load.m1_trf_5740270a" bus1=96033635740270.1.2.3.4 phases=3 conn=wye model=2 kV=0.38 kW=17.0439719051225 kvar=6.96010352856458 daily=RES-Tipo3_DU status=variable Vmaxpu=1.5 Vminpu=0.92
New "Load.m1_trf_5744153a" bus1=96264655744153.1.2.3.4 phases=3 conn=wye model=2 kV=0.38 kW=22.872803125251 kvar=9.48946342758508 daily=RES-Tipo3_DU status=variable Vmaxpu=1.5 Vminpu=0.92
New "Load.m1_trf_5444435a" bus1=81481405444435.1.2.3.4 phases=3 conn=wye model=2 kV=0.38 kW=15.4372598587625 kvar=6.30626742059167 daily=RES-Tipo3_DU status=variable Vmaxpu=1.5 Vminpu=0.92
New "Load.mt_10009727955_nt_m1" bus1=88185385002086.1.2.3 phases=3 conn=delta model=2 kV=13.8 kW=2.704901 pf=0.92 daily=MT-Tipo6_DU status=variable Vmaxpu=1.5 Vminpu=0.93
New "Load.mt_10009727955_nt_m2" bus1=88185385002086.1.2.3 phases=3 conn=delta model=3 kV=13.8 kW=2.704901 pf=0.92 daily=MT-Tipo6_DU status=variable Vmaxpu=1.5 Vminpu=0.93
New "Load.mt_10014416466_nt_m1" bus1=89458365002086.1.2.3 phases=3 conn=delta model=2 kV=13.8 kW=1.3109325 pf=0.92 daily=MT-Tipo6_DU status=variable Vmaxpu=1.5 Vminpu=0.93
New "Load.mt_10014416466_nt_m2" bus1=89458365002086.1.2.3 phases=3 conn=delta model=3 kV=13.8 kW=1.3109325 pf=0.92 daily=MT-Tipo6_DU status=variable Vmaxpu=1.5 Vminpu=0.93
New "Load.mt_10015559007_nt_m1" bus1=89813615002086.1.2.3 phases=3 conn=delta model=2 kV=13.8 kW=1.1475245 pf=0.92 daily=MT-Tipo6_DU status=variable Vmaxpu=1.5 Vminpu=0.93
New "Load.mt_10015559007_nt_m2" bus1=89813615002086.1.2.3 phases=3 conn=delta model=3 kV=13.8 kW=1.1475245 pf=0.92 daily=MT-Tipo6_DU status=variable Vmaxpu=1.5 Vminpu=0.93
New "Load.mt_10020770241_nt_m1" bus1=90964325002086.1.2.3 phases=3 conn=delta model=2 kV=13.8 kW=0.486847 pf=0.92 daily=MT-Tipo6_DU status=variable Vmaxpu=1.5 Vminpu=0.93
New "Load.mt_10020770241_nt_m2" bus1=90964325002086.1.2.3 phases=3 conn=delta model=3 kV=13.8 kW=0.486847 pf=0.92 daily=MT-Tipo6_DU status=variable Vmaxpu=1.5 Vminpu=0.93
New "Load.mt_10022767280_nt_m1" bus1=89813615002086.1.2.3 phases=3 conn=delta model=2 kV=13.8 kW=0.502059 pf=0.92 daily=MT-Tipo6_DU status=variable Vmaxpu=1.5 Vminpu=0.93
New "Load.mt_10022767280_nt_m2" bus1=89813615002086.1.2.3 phases=3 conn=delta model=3 kV=13.8 kW=0.502059 pf=0.92 daily=MT-Tipo6_DU status=variable Vmaxpu=1.5 Vminpu=0.93
